**$ENCRYPTED_LIB
**$INTERFACE
* PSpice Model Editor - Version 16.0.0
*$
* UCC1895, UCC2895 and UCC3895
*****************************************************************************
* (C) Copyright 2009 Texas Instruments Incorporated. All rights reserved.  
*****************************************************************************
** This model is designed as an aid for customers of Texas Instruments.    
** TI and its licensors and suppliers make no warranties, either expressed 
** or implied, with respect to this model, including the warranties of     
** merchantability or fitness for a particular purpose. The model is       
** provided solely on an "as is" basis. The entire risk as to its quality  
** and performance is with the customer                                     
*****************************************************************************
*
* This model was developed for Texas Instruments Incorporated by:
*   AEi Systems, LLC
*   5777 W. Century Blvd., Suite 876
*   Los Angeles, California  90045
*
* This model is subject to change without notice. Neither Texas Instruments Incorporated 
* nor AEi Systems is responsible for updating this model.
* For more information regarding modeling services, model libraries and simulation 
* products, please call AEi Systems at (310) 216-1144, or contact AEi Systems by email: 
* info@AENG.com. Or visit AEi Systems on the web at http://www.AENG.com.
*
*****************************************************************************
*
** Released by: Analog eLab Design Center, Texas Instruments Inc.
* Parts: UCC1895, UCC2895 and UCC3895
* Date: 01/24/2011
* Model Type: Transient 
* Simulator: PSpice 
* Simulator Version: 16.0.0.p001
* EVM Order Number: UCC3895EVM-001 
* EVM Users Guide: SLUU109A  January 2002 
* Datasheet: SLUS157M - December 1999  Revised November 2008 
*
* Model Version: Final 1.10
*
*****************************************************************************
*
* Updates:
*
* Final 1.10
* Added External SYNC Feature
*
* Final 1.00
* Release to web.
*
*****************************************************************************
.SUBCKT UCCx895 INV EAOUT Ramp refout gnd sync ct rt delAB delCD ADS CS outD outC vcc Pgnd outB outA SS NINV
*
$CDNENCSTART
eee8c5c7a2bc4b01f045f303678664e7916da0bae22e8cb0bba041dd67c69ce448ea70148a9ac1670c8926c1ac5057c8ccfcd77bf87ca9dce49782a6ffced33e
cbf3b2a477302a15d30b73a56afc3739f5f333837a9131595946188b1c8938a222d31747fc1ef01e43f0f833ef9becf5d2290a32cc4878c4639baab5c59c4ff6
9e336b57266b03487b25ae81a60b7683abf3ad72204e7b2cde80584e8ada5ad5d4aa6be4c6e3a340c20469f0c26043a752f888c91e1193704eb3be5bfbb13d7a
87cc224c9f3a8973171f15affb0c1a30b8464870f3508aeaacc94ae05e11525108472065f0abd3d2392e4bea0e827fb996f6e6a51f37ea8435a313e9f3c3901a
de5f1f8764cba3896d76822a4538e03b96e82915e09f4e96abb4aedf0c3b558dfef4d8e2c565951128d93ff3e48b3b12d893f919f6ddb6ec15eb258fd4d6d838
f31aeb7bf8ebe2e0f8d8148df60a675b43500c0f241b33f416f9ff14e6717d006352487d3860fff3886a8b831878d899ce86768282bb3bcddfd8650c79cb1f1f
37c69266d9a5eb3e33a5f2b7c1266e63f5f333837a9131595946188b1c8938a222d31747fc1ef01e43f0f833ef9becf5d2290a32cc4878c4639baab5c59c4ff6
**** UVLO section ****
09fe6c9f2f539ca785594bb10b20eef3a6919cb32b47868730ccfd048fc0dd1d3650929dfdbd26a5811fbe603aa25d9ff5f333837a913159be7e8856f2d45394
461c249a3d8558b80476d7b00c646495e0b650aef92e7d1940ba519ed38f21e4e5ddff7d5b00853faf40345b82b1fbcf335fbf37f24091982ba2c1c1728c017b
0f77bca6ab65ee0ea04555c1d579b6b232ca7236010028468ca63846b317cf96f8e6b838ce654e02a5232e48c9c6d8230756dc394f2223ab29d306ed2a4cc223
f174ddcc2f63d73a339490002afc6238f5f333837a9131595946188b1c8938a222d31747fc1ef01e43f0f833ef9becf5d2290a32cc4878c4639baab5c59c4ff6
91973987e5e1f371a04555c1d579b6b232ca7236010028462c7dc48174f837875f6a486665bbb5737f85cdc9baa9b739d48642b738f9893dcf65edc64ae5b5b8
7976f5ccfee9fb2e4724cff895700b11f3a86103bcf0c596de80584e8ada5ad5d4aa6be4c6e3a340c20469f0c26043a752f888c91e1193704eb3be5bfbb13d7a
d665dfc6a7d06726a04555c1d579b6b232ca7236010028462c7dc48174f8378702a6ff8cbc1fa98f38b20fbcfa2b05e9d48642b738f9893dd38aff4e12555a5d
4e449df474596124a04555c1d579b6b232ca7236010028462c7dc48174f8378707655e4342943329c8f259e7e8f775fed48642b738f9893dd38aff4e12555a5d
3e152118704febf7a04555c1d579b6b232ca7236010028462c7dc48174f837879d423d434c7b4998bfa2d27148047bded48642b738f9893dd38aff4e12555a5d
*
a829791a9f96d65526a1054f3f581042eaca9fa1551e0db972c6ce1486cde2b752983a256b28a38004c4544435e5f9e2c3593bcf220a4451be6de2fd7082c8ff
bb4298f6786ae84b545e87111130772feaca9fa1551e0db972c6ce1486cde2b752983a256b28a38004c4544435e5f9e2c3593bcf220a4451be6de2fd7082c8ff
8dfa638c37d07315a0c23f30258e4a2e8f7569b964179758aad0cae5ebf3019ade80584e8ada5ad5d4aa6be4c6e3a340c20469f0c26043a78eacbc6276c4ef35
8f676785bc7d1f68b0747b4e9084a42b96e82915e09f4e96abb4aedf0c3b558dfef4d8e2c565951128d93ff3e48b3b12d893f919f6ddb6ec15eb258fd4d6d838
7c5d9256141eda46214c8eccbd9fcf0d96e82915e09f4e96abb4aedf0c3b558dfef4d8e2c565951128d93ff3e48b3b12d893f919f6ddb6ec15eb258fd4d6d838
5ed66363ec7f1355c0863ce3e62296168de8b67a138961e4014db6e13aaf05bb59678dbce8ea856201a22299dd7bb049aa5bd6bd1e70b6c9b5689c9c0317c8ad
20bd6dbd64c6f11d75707e0627cd802541df08a926d21f0e206287783254a02fa205e4f91a9c2e30baf3985689b2e80fa4f69c78751dd3a2456a7b81c10b0313
7fa582a03233f64c5f3b071ab48686d632ca7236010028468ca63846b317cf96f8e6b838ce654e0212ad7e304e0fd7b57603af0b9555e8762ba2c1c1728c017b
74857bcba930aa31001a064af1a871f016f9ff14e6717d006352487d3860fff3886a8b831878d899ce86768282bb3bcd8e8b4905e24f6631d9c099a0a4374c3d
55089b994607da520a0905db101595c38ca63846b317cf96f8e6b838ce654e029a00aaee67012dbf74f2be76ca9fd380aa5bd6bd1e70b6c9b5689c9c0317c8ad
f079d2222463c93455e0859c639e58ab2c4b5f36edab5d85aadd07bc494928ab52c0bd7117048136736962d3a65fed4a1f4a4ba6a7379ad1cfc2ec3cedae0a6c
0d2c23c34b1bfdbb65721a7490029513a8b47f492503b4fa16f9ff14e6717d006352487d3860fff3886a8b831878d899ce86768282bb3bcddfd8650c79cb1f1f
a33103efd31d7a9778669644401db2b7609fd6e11e57507b96e82915e09f4e96abb4aedf0c3b558dfef4d8e2c565951128d93ff3e48b3b12d2bae35d7f4dfa8f
*Rslow sync 801 1k
*Cslow sync 0 10p 
*EBslow 801 0 Value = { IF ( V(clock)>2.5, 5, 0 ) }
085943a35bbe328efc64f2bbc2cedf828a24cdf15a44d7cb983415fc5727c992acc94ae05e11525108472065f0abd3d2392e4bea0e827fb978e67ea52171c36b
*EBsync sync 0 value = { V(clock) }
200828cc638ed043f25c536ce976fffb8e9dfee226cff58e206287783254a02fa205e4f91a9c2e30baf3985689b2e80fa4f69c78751dd3a2456a7b81c10b0313
59f4ea1149adcf01be803abe91b58378a82f860ec1793bc3f5f333837a9131595946188b1c8938a222d31747fc1ef01e43f0f833ef9becf53a4442d1b43f8e4c
062d0aa7760663db68ba3a603a7b13cb0e0069794d1b778420749fd019de12b8f5f333837a9131595946188b1c8938a222d31747fc1ef01e486c3b8368dbfc40
02e969ee5e2cbb9251472a4641bc82ab277967c8ebc1bad5f5f333837a9131595946188b1c8938a222d31747fc1ef01e43f0f833ef9becf53a4442d1b43f8e4c
122b95e1a6a8e195a1232770d9d9caba828736acd4a06427f5f333837a9131595946188b1c8938a222d31747fc1ef01e43f0f833ef9becf53a4442d1b43f8e4c
37431e1afac3297016dc99975de564b9828736acd4a06427f5f333837a9131595946188b1c8938a222d31747fc1ef01e43f0f833ef9becf53a4442d1b43f8e4c
001fc865258d26a3b8bc4dece7958863206287783254a02fa205e4f91a9c2e30baf3985689b2e80fa4f69c78751dd3a2bdf74c10b68ef93c269a8231eb7e4492
5deb965bd2a7a1c9ef132bdc2f7c2e79f5f333837a9131595946188b1c8938a222d31747fc1ef01e43f0f833ef9becf5d2290a32cc4878c4639baab5c59c4ff6
845061d532e528a9b1fc2f8fc4e019bffc6643cae5f20dccf5f333837a9131595946188b1c8938a222d31747fc1ef01e43f0f833ef9becf53a4442d1b43f8e4c
* EB5 27 0 Value = { IF ( V(SS) < 3V, V(EAOUT)*V(SS)/3, V(EAOUT) ) }
* EB120 220 0 Value = { V(EAOUT) }
b920c09b4180aede87393e3906a970ab0b02db8506ad469b663d51c87fbefde1f5f333837a9131595946188b1c8938a222d31747fc1ef01e486c3b8368dbfc40
75ba3f60e3653aa5b075d4ece4b30af6ac06bac1c240ae6d16f9ff14e6717d006352487d3860fff3886a8b831878d899ce86768282bb3bcddfd8650c79cb1f1f
12f4e49eae855501c3c93a6bb93b6e9684d167f9a129d7ad678a00cec0059769eaca9fa1551e0db972c6ce1486cde2b752983a256b28a3803a9cf358c54cf128
d995c148ec9acdc047d8a212bee14eb168112da9ed6986685a81445695e10bc4253894f286874f95b1265f52d4d755f9f5f333837a913159be7e8856f2d45394
4e21d50df89fad5fc375050683df95dff5f333837a9131595946188b1c8938a222d31747fc1ef01e43f0f833ef9becf5d2290a32cc4878c4639baab5c59c4ff6
a5bf7a7e00718a5c035e22bcae6f77a48f7569b964179758aad0cae5ebf3019ade80584e8ada5ad5d4aa6be4c6e3a340c20469f0c26043a78eacbc6276c4ef35
a119fbf3428d8edf433beff356e3503658e9e752dbba4fde76c66150ac601e8c16f9ff14e6717d006352487d3860fff3886a8b831878d899ab69c0b95aff7e90
0249e1bd2b564550d83032a99f64385520caa6a1c6d325a1dbbda4dc32a59d302c9ae6e81f9a96769a29455eb4dd3c9c880da96b5a6416e64c758241d149fb97
11b904d22aa0e59472c6ce1486cde2b752983a256b28a38004c4544435e5f9e2c3593bcf220a445186586079c75c3210a62bb573bdb9f243e3430bc7bc8b0f14
320aa7c20b1cec4ad83e43295b12586e27c38327a42441ddde80584e8ada5ad5d4aa6be4c6e3a340c20469f0c26043a752f888c91e1193704eb3be5bfbb13d7a
4efa632fdebdc0e62a130768201b05fbcc309afae6d9597daa12982b7c0d5f9b49a8bbcc72fcac5d33a1bf81161c6a8161d8c90ced2980ff8581ffce94ee363a
11b904d22aa0e59472c6ce1486cde2b752983a256b28a38004c4544435e5f9e2c3593bcf220a445186586079c75c3210a62bb573bdb9f243e3430bc7bc8b0f14
a9d0333882365026752d6f3870759de57d353fbff9c248edeaca9fa1551e0db972c6ce1486cde2b752983a256b28a38004c4544435e5f9e2b1a722a61e062683
1bd67b1376674570177b8003aee1ea2396bddb67fc06b48116f9ff14e6717d006352487d3860fff3886a8b831878d899ce86768282bb3bcddfd8650c79cb1f1f
034bc9c2989c5f0a01351fa90ba9ee7d828736acd4a06427f5f333837a9131595946188b1c8938a222d31747fc1ef01e43f0f833ef9becf53a4442d1b43f8e4c
23b13e555f3eff5364bc8dfb8b58d70096e82915e09f4e96abb4aedf0c3b558dfef4d8e2c565951128d93ff3e48b3b12d893f919f6ddb6ec15eb258fd4d6d838
ec3b5c114c8ed72c3fe2e01654def08472baf7003e3021f0aad0cae5ebf3019ade80584e8ada5ad5d4aa6be4c6e3a340c20469f0c26043a78eacbc6276c4ef35
f0bb1a2fbb09ddd624c343e8bb47956c2c4b5f36edab5d85aadd07bc494928ab52c0bd7117048136736962d3a65fed4a1f4a4ba6a7379ad1cfc2ec3cedae0a6c
b940461f8ba321d60a0937a232c4c1be5b31487805496d83de80584e8ada5ad5d4aa6be4c6e3a340c20469f0c26043a752f888c91e1193704eb3be5bfbb13d7a
149934588292f15df7d9efa2a10213a4d25cd65b39b7b355733c811e1fbecddfaad0cae5ebf3019ade80584e8ada5ad5d4aa6be4c6e3a340d4547e78bf220153
7ef7fa9d21ffcd0c51d2b568483d088d96e82915e09f4e96abb4aedf0c3b558dfef4d8e2c565951128d93ff3e48b3b12d893f919f6ddb6ec15eb258fd4d6d838
a04e513ce96c399d302f4b3e3bfd870f875872a391d7c527983415fc5727c992acc94ae05e11525108472065f0abd3d2392e4bea0e827fb978e67ea52171c36b
dd33e7097595b4cab618609b67559a5bda0d10329c890a35180e5babf779d71d206287783254a02fa205e4f91a9c2e30baf3985689b2e80ff4ecd55349bf5a33
23ef24807881c3852ab895a4ae649c666cb7bb97f9e48900bf1a77de68fe5aa9507acda0bfd6d3bbaad0cae5ebf3019ade80584e8ada5ad59a3de50dc52ccf74
da305114d98be2d8c844d271150aeff86cb7bb97f9e48900bdddbed69af0a8c3507acda0bfd6d3bbaad0cae5ebf3019ade80584e8ada5ad59a3de50dc52ccf74
c0fd71145e8731511db82d7fcf5499966cb7bb97f9e48900bb6bf3871fbb92aa507acda0bfd6d3bbaad0cae5ebf3019ade80584e8ada5ad59a3de50dc52ccf74
e979669f90a1b2456adc1a1584d97b756cb7bb97f9e4890044c56739196d77c8507acda0bfd6d3bbaad0cae5ebf3019ade80584e8ada5ad59a3de50dc52ccf74
29c5790a55084704e23e119291168e1e2c4b5f36edab5d85aadd07bc494928ab52c0bd7117048136736962d3a65fed4a1f4a4ba6a7379ad1cfc2ec3cedae0a6c
059397fe02bbeb8fb74cd08e673e1da62c4b5f36edab5d85aadd07bc494928ab52c0bd7117048136736962d3a65fed4a1f4a4ba6a7379ad1cfc2ec3cedae0a6c
a0c813ee10c0e3059b59799c52a7b53b2c4b5f36edab5d85aadd07bc494928ab52c0bd7117048136736962d3a65fed4a1f4a4ba6a7379ad1cfc2ec3cedae0a6c
950c564d53210ff817d858fc524f266d2c4b5f36edab5d85aadd07bc494928ab52c0bd7117048136736962d3a65fed4a1f4a4ba6a7379ad1cfc2ec3cedae0a6c
a860bbc73bbe466ff4ac15d9b64fefe727d41c3aa78fe47d206287783254a02fa205e4f91a9c2e30baf3985689b2e80fa4f69c78751dd3a2456a7b81c10b0313
*** variable delay section ***
c6b2ee407fc975b1a33872bcbba7cf0eed8ce2e705c14ecfde80584e8ada5ad5d4aa6be4c6e3a340c20469f0c26043a752f888c91e1193704eb3be5bfbb13d7a
7f8c0a7b739cae98a161cb1010cac56aed8ce2e705c14ecfde80584e8ada5ad5d4aa6be4c6e3a340c20469f0c26043a752f888c91e1193704eb3be5bfbb13d7a
6ecd44847e064b9ac47030799598ec32712f7945e273ad04acc94ae05e11525108472065f0abd3d2392e4bea0e827fb996f6e6a51f37ea8435a313e9f3c3901a
5aeebbec61f7a120cb5259e3a07af984a5e8f84780261c9aacc94ae05e11525108472065f0abd3d2392e4bea0e827fb996f6e6a51f37ea8435a313e9f3c3901a
577abe51c2bbc0ada4a5d0ce9a005a3ded8ce2e705c14ecfde80584e8ada5ad5d4aa6be4c6e3a340c20469f0c26043a752f888c91e1193704eb3be5bfbb13d7a
6434b054f57daa02a939547623c1e15b9e6f5407c88bd44e2c4b5f36edab5d85aadd07bc494928ab52c0bd7117048136736962d3a65fed4a4fa724e1d5450fb0
79d807f0130a5dee96d1314cb529a06e2c4b5f36edab5d85aadd07bc494928ab52c0bd7117048136736962d3a65fed4a1f4a4ba6a7379ad1cfc2ec3cedae0a6c
fcc35c53ff7412d25e1aeb23ef7734dcf5f333837a9131595946188b1c8938a222d31747fc1ef01e43f0f833ef9becf5d2290a32cc4878c4639baab5c59c4ff6
ae4a9f66f86888a3c2d318879f38ba82800d98744678c7f8241c428cfe67dcb5f7f0963501fd77f572c6ce1486cde2b752983a256b28a3803a9cf358c54cf128
e4787f17550685050f141f29df3830e3800d98744678c7f8241c428cfe67dcb5f7f0963501fd77f572c6ce1486cde2b752983a256b28a3803a9cf358c54cf128
8520ce70105b278ff642ebc1bb06577b02ae8cbf5b2eed45cb48ad909b54fc002bfef1213d942a6a737c099027f643ecacc94ae05e115251a3d2903465194489
b6542bed0273ed2ada7446f9828573ddd3f0ccfcd5ac41b8cb48ad909b54fc002bfef1213d942a6a737c099027f643ecacc94ae05e115251a3d2903465194489
**********************
1fc9b69709329730f6032520caba46192f78c5f00167fc9972c6ce1486cde2b752983a256b28a38004c4544435e5f9e2c3593bcf220a4451be6de2fd7082c8ff
** A delay section **
0decac969e9224c69644d7d1c4fccbec52416bec8eb64693641b1e529168d4e567dcb512f7a2e6d3daf7c007643079b782b74935ca49319b756f31e59c560a1c
c529269ca1e3f0afb60a664880577087d5073f13e7eb5fe0fcf0000f8974d3d5acc94ae05e11525108472065f0abd3d2392e4bea0e827fb978e67ea52171c36b
bb90746cdaa50e2cfa4ddd8a2cbcabfa52416bec8eb64693641b1e529168d4e54d3cb9fd30e25f3cdaf7c007643079b782b74935ca49319b756f31e59c560a1c
18bb5549469d79618538cf05c1327c48b350ee14c96a89b4acc94ae05e11525108472065f0abd3d2392e4bea0e827fb996f6e6a51f37ea8435a313e9f3c3901a
92ae36462224087a4bb28e9ddb7753460d93056f7e81da60f558a13c523c2a61a3a81e692158d103acc94ae05e11525108472065f0abd3d289120621a3cca522
*EDELAB1 refAB1 0 value = { IF ( V(39) > 2.5V, 1V, 50m ) }
*EDELAB1 refAB1 0 value = { IF ( V(39) > 2.5V, 1V, 1V ) }
ce4a51524361eca056a58bbc4ac0df9657e2c5aa80851370acc94ae05e11525108472065f0abd3d2392e4bea0e827fb996f6e6a51f37ea8435a313e9f3c3901a
** B delay section **
da100fedca6483c204669c0e73ddf17252416bec8eb64693641b1e529168d4e564355120789e4befdaf7c007643079b782b74935ca49319b756f31e59c560a1c
06148c7da742cfd3b60a664880577087d5073f13e7eb5fe0fcf0000f8974d3d5acc94ae05e11525108472065f0abd3d2392e4bea0e827fb978e67ea52171c36b
a2868021d12fcd0e03e709848c5f48f152416bec8eb64693641b1e529168d4e5bc83273fc07579aedaf7c007643079b782b74935ca49319b756f31e59c560a1c
c365dca4002a8131e5001170ec289df9b350ee14c96a89b4acc94ae05e11525108472065f0abd3d2392e4bea0e827fb996f6e6a51f37ea8435a313e9f3c3901a
8acb4ee4fe8334aa7d82486af87a8ce81f01320e891159b2f558a13c523c2a61a3a81e692158d103acc94ae05e11525108472065f0abd3d289120621a3cca522
*EDELAB2 refAB2 0 value = { IF ( V(41) > 2.5V, 1V, 50m ) }
*EDELAB2 refAB2 0 value = { IF ( V(41) > 2.5V, 1V, 1V ) }
8cc43aae1d4644404e7faf3287bd35b357e2c5aa80851370acc94ae05e11525108472065f0abd3d2392e4bea0e827fb996f6e6a51f37ea8435a313e9f3c3901a
** C delay section **
25ec4febd65091348ac8baca8988331052416bec8eb64693641b1e529168d4e534aa4f11c6a954c7daf7c007643079b7830119e4f78ef9cf756f31e59c560a1c
1a0c1f6516ba81c1b60a664880577087d5073f13e7eb5fe0fcf0000f8974d3d5acc94ae05e11525108472065f0abd3d2392e4bea0e827fb978e67ea52171c36b
7a5f2c47c75ce656c33fa5c35578f36952416bec8eb64693641b1e529168d4e5324bf27866be89e3daf7c007643079b7830119e4f78ef9cf756f31e59c560a1c
04315bf567d2a0a4c3c7cc49b67051a7b350ee14c96a89b4acc94ae05e11525108472065f0abd3d2392e4bea0e827fb996f6e6a51f37ea8435a313e9f3c3901a
6178226c62b49d009b799f9a325f54b264b8836b68b11646f558a13c523c2a61a3a81e692158d103acc94ae05e11525108472065f0abd3d289120621a3cca522
*EDELAB3 refAB3 0 value = { IF ( V(43) > 2.5V, 1V, 50m ) }
*EDELAB3 refAB3 0 value = { IF ( V(43) > 2.5V, 1V, 1V ) }
a902785da09a7c1402d719634b1ed0f4680d2d7c8463c02a16f9ff14e6717d006352487d3860fff3886a8b831878d899ce86768282bb3bcddfd8650c79cb1f1f
** D delay section **
0e9f124e267c84625b060e09735d39ef52416bec8eb64693641b1e529168d4e562beddee3777b9a3daf7c007643079b7830119e4f78ef9cf756f31e59c560a1c
eff7b32f4694cb4fb60a664880577087d5073f13e7eb5fe0fcf0000f8974d3d5acc94ae05e11525108472065f0abd3d2392e4bea0e827fb978e67ea52171c36b
5c209deff858175e142b38ec459ba52a52416bec8eb64693641b1e529168d4e59835dc298d6a7d38daf7c007643079b7830119e4f78ef9cf756f31e59c560a1c
8c88fe1bc7c094e8ed5a37a15d590f4db350ee14c96a89b4acc94ae05e11525108472065f0abd3d2392e4bea0e827fb996f6e6a51f37ea8435a313e9f3c3901a
086de8dd8d86fa9d671c4c70a6284914e6dab20b3bae5528f558a13c523c2a61a3a81e692158d103acc94ae05e11525108472065f0abd3d289120621a3cca522
*EDELAB4 refAB4 0 value = { IF ( V(38) > 2.5V, 1V, 50m ) }
*EDELAB4 refAB4 0 value = { IF ( V(38) > 2.5V, 1V, 1V ) }
e30dd71ea8cac50dccb6b0acf2304ccc57e2c5aa80851370acc94ae05e11525108472065f0abd3d2392e4bea0e827fb996f6e6a51f37ea8435a313e9f3c3901a
**
d7072740a938f0e753d68a48e0064fca58308527ae72079a2c2f0043efabafa7fe3a553ffc20a57d6c8036716dbffc69a0aa7ef3bfee47bc029b7fbfd255e2e4
a3011f0b65e457a7e40bdf7057120bc9acc94ae05e11525108472065f0abd3d2392e4bea0e827fb996f6e6a51f37ea848eaf5d0937449123be4f8b8f69441881
08a645e7acf561c313880da23ac780b282d9afd4dea9b9827a669fa8e0698dc1ff9635fc408b29ccc4c881890f984edb7d4813656ca7bcdec9a84b4639fdce48
08a645e7acf561c3465110731ba062aa82d9afd4dea9b982959ccaf72a711764f9b75c7477162ae6c4c881890f984edb7d4813656ca7bcdec9a84b4639fdce48
d7072740a938f0e74edf481a7ee261f2d0b4171a5b4a44f59e76a7ccf67ba49d88cd7bade4a9090bd74799415508e0ceb0746790dcd97dedfeb531c84ffe28bb
0697746efb67a3a3551a10c66cda818186d040eff8ce9a3d637ee56a3a949486663034af5239af0ac1b2568509a3026c96e82915e09f4e9691696c6cbb78cdc1
*.model DCLPdel D BV=1.05 N=0.01 IBV=5u RS=100M TT=40N CJO=25P
d7072740a938f0e7575d5c880ff3651f3de06f1cca176a88741fecad479886a81c2500d7c81712c54eefc13e3a2eee055dd05004596fe3ea6adf69c240c071cd
01faa06dc8b1d5d50d1876ecb01a372c16f9ff14e6717d006352487d3860fff3886a8b831878d899ce86768282bb3bcd8e8b4905e24f6631d9c099a0a4374c3d
**
$CDNENCFINISH
.ENDS UCCx895
*$
.SUBCKT COMPAR3895 NINV INV OUT params: VHIGH=5 VLOW=100m
$CDNENCSTART
eee8c5c7a2bc4b01f045f303678664e7916da0bae22e8cb0bba041dd67c69ce448ea70148a9ac1670c8926c1ac5057c8ccfcd77bf87ca9dce49782a6ffced33e
8ee46724d4d57d7d6356fdfb2450ab44696be0dd9ed3f8445b32be9640b1d14b56c863b8d099d9fb2496f7b16d9a3908260fa5b4a73d135c756f31e59c560a1c
782ffe521021bfbcd0ef89528d5c38ae72c6ce1486cde2b752983a256b28a38004c4544435e5f9e2c3593bcf220a445186586079c75c32103d13c9b12f9b6222
9483c7684e07ed807cf6a967faa0287f96e82915e09f4e96abb4aedf0c3b558dfef4d8e2c565951128d93ff3e48b3b12d893f919f6ddb6ec15eb258fd4d6d838
$CDNENCFINISH
.ENDS
*$
.SUBCKT COMPAR3895_2 NINV INV OUT params: VHIGH=5 VLOW=100m
$CDNENCSTART
eee8c5c7a2bc4b01f045f303678664e7916da0bae22e8cb0bba041dd67c69ce448ea70148a9ac1670c8926c1ac5057c8ccfcd77bf87ca9dce49782a6ffced33e
8ee46724d4d57d7d6356fdfb2450ab44696be0dd9ed3f8445b32be9640b1d14b56c863b8d099d9fb2496f7b16d9a3908260fa5b4a73d135c756f31e59c560a1c
782ffe521021bfbc6f402838c2e2fb2f72c6ce1486cde2b752983a256b28a38004c4544435e5f9e2c3593bcf220a445186586079c75c32103d13c9b12f9b6222
9483c7684e07ed807cf6a967faa0287f96e82915e09f4e96abb4aedf0c3b558dfef4d8e2c565951128d93ff3e48b3b12d893f919f6ddb6ec15eb258fd4d6d838
$CDNENCFINISH
.ENDS
*$
.SUBCKT PWM3895 NINV INV OUT params: VHIGH=5 VLOW=100m
$CDNENCSTART
eee8c5c7a2bc4b01f045f303678664e7916da0bae22e8cb0bba041dd67c69ce448ea70148a9ac1670c8926c1ac5057c8ccfcd77bf87ca9dce49782a6ffced33e
8ee46724d4d57d7d6356fdfb2450ab44696be0dd9ed3f8445b32be9640b1d14b56c863b8d099d9fb2496f7b16d9a3908260fa5b4a73d135c756f31e59c560a1c
782ffe521021bfbca48aa12cf3ed1aff16f9ff14e6717d006352487d3860fff3886a8b831878d899ce86768282bb3bcd8e8b4905e24f6631d9c099a0a4374c3d
9483c7684e07ed803cc88d96aa923609206287783254a02fa205e4f91a9c2e30baf3985689b2e80fa4f69c78751dd3a2bdf74c10b68ef93c269a8231eb7e4492
$CDNENCFINISH
.ENDS
*$
.SUBCKT INVER3895 1 2
$CDNENCSTART
eee8c5c7a2bc4b01f045f303678664e7916da0bae22e8cb0bba041dd67c69ce448ea70148a9ac1670c8926c1ac5057c8ccfcd77bf87ca9dce49782a6ffced33e
8ee46724d4d57d7d6356fdfb2450ab44696be0dd9ed3f8442b67cf86456c4b826fed1dfb11b920e0b5f1c17ee7956303acc94ae05e115251a3d2903465194489
8da51899d4bf5e83af17933cdab6f1f6acc94ae05e11525108472065f0abd3d2392e4bea0e827fb996f6e6a51f37ea848eaf5d0937449123be4f8b8f69441881
5b958b70db37f5459208a320bc4526f3acc94ae05e11525108472065f0abd3d2392e4bea0e827fb996f6e6a51f37ea848eaf5d0937449123be4f8b8f69441881
$CDNENCFINISH
.ENDS
*$
.SUBCKT AND53895 1 2 3 4 8 7 5
$CDNENCSTART
eee8c5c7a2bc4b01f045f303678664e7916da0bae22e8cb0bba041dd67c69ce448ea70148a9ac1670c8926c1ac5057c8ccfcd77bf87ca9dce49782a6ffced33e
d8bb7fb05c18b1bb6356fdfb2450ab44d193329f21b0cf65efb47545e45992edb54dfaa4b5973586b550ff13f023c7214880eed86780562dc0dec9bb73fc59d3
cb974107c5b072bd14c9167b7cdd1271b4e21d0eb4c98c5f8223db09ead032d8258b2fee1300e89e96e82915e09f4e96abb4aedf0c3b558de0f0f0b389161699
835a4a6d79b79153e847dda77d5f9443de80584e8ada5ad5d4aa6be4c6e3a340c20469f0c26043a752f888c91e119370d24a3953ab556e9fe7afb7f79bfecda6
d5cbca326816df319208a320bc4526f3acc94ae05e11525108472065f0abd3d2392e4bea0e827fb996f6e6a51f37ea848eaf5d0937449123be4f8b8f69441881
$CDNENCFINISH
.ENDS
*$
.SUBCKT FFLOP3895 1  2 11 12 5  6
*            CLK D R  S  QB Q
$CDNENCSTART
eee8c5c7a2bc4b01f045f303678664e7916da0bae22e8cb0bba041dd67c69ce448ea70148a9ac1670c8926c1ac5057c8ccfcd77bf87ca9dce49782a6ffced33e
fa80b2a445629ce5e49fa01faebe1b8bd0b738b6008ff32cf5f333837a9131595946188b1c8938a222d31747fc1ef01e43f0f833ef9becf53a4442d1b43f8e4c
83d9faeb02840f62d80375ff19e76a27cb2a56068868524c2c4b5f36edab5d85aadd07bc494928ab52c0bd7117048136736962d3a65fed4a4fa724e1d5450fb0
11244341a8168b011728ff00e8d2e8e9816f00b0c44376432c4b5f36edab5d85aadd07bc494928ab52c0bd7117048136736962d3a65fed4a4fa724e1d5450fb0
6b0e583d7050b153eda5b57d582d03afcb2a56068868524c2c4b5f36edab5d85aadd07bc494928ab52c0bd7117048136736962d3a65fed4a4fa724e1d5450fb0
7a000cf174e86c763ff218ef1cc1f6bb89a53bf516b2a8c9f5f333837a9131595946188b1c8938a222d31747fc1ef01e43f0f833ef9becf53a4442d1b43f8e4c
b5eee45b28fad7876f441615cbee8182cb2a56068868524c2c4b5f36edab5d85aadd07bc494928ab52c0bd7117048136736962d3a65fed4a4fa724e1d5450fb0
70d9a5a54b58f53e6c2b648f89a679a1aad0cae5ebf3019ade80584e8ada5ad5d4aa6be4c6e3a340c20469f0c26043a752f888c91e1193704eb3be5bfbb13d7a
96f702f7295cc7416c2b648f89a679a1aad0cae5ebf3019ade80584e8ada5ad5d4aa6be4c6e3a340c20469f0c26043a752f888c91e1193704eb3be5bfbb13d7a
$CDNENCFINISH
.ENDS 
*$
.SUBCKT NAND3_03895 1 2 3 4
$CDNENCSTART
eee8c5c7a2bc4b01f045f303678664e7916da0bae22e8cb0bba041dd67c69ce448ea70148a9ac1670c8926c1ac5057c8ccfcd77bf87ca9dce49782a6ffced33e
fdfd611258d82adbdc051b9a91e3562ff2465dcc41f73b43efb47545e45992edb54dfaa4b5973586b550ff13f023c7214880eed86780562d857bf33d9e8207e2
3ba20d0605ef430996e82915e09f4e96abb4aedf0c3b558dfef4d8e2c565951128d93ff3e48b3b12d893f919f6ddb6ec3ac074031fc2421a6973e7aa4048563e
ac90694969b2569ae847dda77d5f9443de80584e8ada5ad5d4aa6be4c6e3a340c20469f0c26043a752f888c91e119370d24a3953ab556e9fe7afb7f79bfecda6
b6647ba7ffa33c57415f88481aabd776f5f333837a9131595946188b1c8938a222d31747fc1ef01e43f0f833ef9becf5d2290a32cc4878c4639baab5c59c4ff6
$CDNENCFINISH
.ENDS
*$
.SUBCKT NAND3_13895 1 2 3 4
$CDNENCSTART
eee8c5c7a2bc4b01f045f303678664e7916da0bae22e8cb0bba041dd67c69ce448ea70148a9ac1670c8926c1ac5057c8ccfcd77bf87ca9dce49782a6ffced33e
fdfd611258d82adbdc051b9a91e3562ff2465dcc41f73b43efb47545e45992edb54dfaa4b5973586b550ff13f023c7214880eed86780562d857bf33d9e8207e2
3ba20d0605ef430996e82915e09f4e96abb4aedf0c3b558dfef4d8e2c565951128d93ff3e48b3b12d893f919f6ddb6ec3ac074031fc2421a6973e7aa4048563e
ac90694969b2569ae847dda77d5f9443de80584e8ada5ad5d4aa6be4c6e3a340c20469f0c26043a752f888c91e119370d24a3953ab556e9fe7afb7f79bfecda6
b6647ba7ffa33c5783ebb9b1d6a29bc9f5f333837a9131595946188b1c8938a222d31747fc1ef01e43f0f833ef9becf5d2290a32cc4878c4639baab5c59c4ff6
$CDNENCFINISH
.ENDS
*$
.SUBCKT INV_13895 1 2
$CDNENCSTART
eee8c5c7a2bc4b01f045f303678664e7916da0bae22e8cb0bba041dd67c69ce448ea70148a9ac1670c8926c1ac5057c8ccfcd77bf87ca9dce49782a6ffced33e
51762caa43741950dc051b9a91e3562f641b1e529168d4e5d6600d5af11a4d3e9e8c72129e551f202c4b5f36edab5d85aadd07bc494928ab618b09279d625f6f
a2fe8e2b0789b11fe847dda77d5f9443de80584e8ada5ad5d4aa6be4c6e3a340c20469f0c26043a752f888c91e119370d24a3953ab556e9fe7afb7f79bfecda6
d75df2b956ebf9c183ebb9b1d6a29bc9f5f333837a9131595946188b1c8938a222d31747fc1ef01e43f0f833ef9becf5d2290a32cc4878c4639baab5c59c4ff6
$CDNENCFINISH
.ENDS
*$
.SUBCKT OR33895 1 2 3 5
$CDNENCSTART
eee8c5c7a2bc4b01f045f303678664e7916da0bae22e8cb0bba041dd67c69ce448ea70148a9ac1670c8926c1ac5057c8ccfcd77bf87ca9dce49782a6ffced33e
8ee46724d4d57d7d6356fdfb2450ab44c9a27d160b147db9fc8e0374a85c13f9d39bd9883831e06b827030ea562083d41a51d983e0f8c34e32c95191550b4efe
7743b09830a20eda4d5b1b73307b130316f9ff14e6717d006352487d3860fff3886a8b831878d899ce86768282bb3bcd8e8b4905e24f6631d9c099a0a4374c3d
7841d4090b267c73af17933cdab6f1f6acc94ae05e11525108472065f0abd3d2392e4bea0e827fb996f6e6a51f37ea848eaf5d0937449123be4f8b8f69441881
d5cbca326816df319208a320bc4526f3acc94ae05e11525108472065f0abd3d2392e4bea0e827fb996f6e6a51f37ea848eaf5d0937449123be4f8b8f69441881
$CDNENCFINISH
.ENDS 
*$
.SUBCKT AMPSIMP 1 5 7  params: POLE=30 GAIN=30000 VHIGH=4V VLOW=100mV
*               + - OUT
$CDNENCSTART
eee8c5c7a2bc4b01f045f303678664e7916da0bae22e8cb0bba041dd67c69ce448ea70148a9ac1670c8926c1ac5057c8ccfcd77bf87ca9dce49782a6ffced33e
a2a6b18f3ab16668f7df4c4a4287e4a1f5f333837a9131595946188b1c8938a222d31747fc1ef01e43f0f833ef9becf5d2290a32cc4878c4639baab5c59c4ff6
a512f0b8d46f27a8ebb26612978b2d754f606d73e9c15121acc94ae05e11525108472065f0abd3d2392e4bea0e827fb996f6e6a51f37ea8435a313e9f3c3901a
2cae929df63c0bff5852fa615e2c047087f18e5b0dc38914cd26dbd00e10c9b7c2356fa0b0fe3ea9acc94ae05e11525108472065f0abd3d289120621a3cca522
a5cab0115922ab2802ad93d405ca8e1172c6ce1486cde2b752983a256b28a38004c4544435e5f9e2c3593bcf220a445186586079c75c32103d13c9b12f9b6222
15b4746d41cd7407e847dda77d5f9443de80584e8ada5ad5d4aa6be4c6e3a340c20469f0c26043a752f888c91e119370d24a3953ab556e9fe7afb7f79bfecda6
913aca083234e0c22f884cfe6d946e667ca699904d8a1d94acc94ae05e11525108472065f0abd3d2392e4bea0e827fb996f6e6a51f37ea8435a313e9f3c3901a
20f7c606986276907419d2bec254197afdd161beea4fc24e96e82915e09f4e96abb4aedf0c3b558dfef4d8e2c565951128d93ff3e48b3b12d2bae35d7f4dfa8f
9bde52c2ee17a910768769998b5a2978206287783254a02fa205e4f91a9c2e30baf3985689b2e80fa4f69c78751dd3a2bdf74c10b68ef93c269a8231eb7e4492
f5d043012a9dd38aada4c94f8b493b6996e82915e09f4e96abb4aedf0c3b558dfef4d8e2c565951128d93ff3e48b3b12d893f919f6ddb6ec15eb258fd4d6d838
d7072740a938f0e749246c0b4170558164e020eaec39917772c6ce1486cde2b752983a256b28a38004c4544435e5f9e2c3593bcf220a4451be6de2fd7082c8ff
$CDNENCFINISH
.ENDS
*$
.SUBCKT AMP3895 Inp Inv Out SS GND
* NINV INV OUT VCC GND
*ECC Vcc GND Value = { V(SS) }
$CDNENCSTART
eee8c5c7a2bc4b01f045f303678664e7916da0bae22e8cb0bba041dd67c69ce448ea70148a9ac1670c8926c1ac5057c8ccfcd77bf87ca9dce49782a6ffced33e
89262fe965e43ab731f7f0bfcbfd8b441f94dc10fd6067632831dd635b3a5fd58afb99d58bc551da206287783254a02fa205e4f91a9c2e30c7d32b7c1c63364c
4332ff97305925ad3425d9c3b32e65b5cec8fcdc013772b6acc94ae05e11525108472065f0abd3d2392e4bea0e827fb996f6e6a51f37ea8435a313e9f3c3901a
8025ca591e89edc440ce14238a3e2cec72c6ce1486cde2b752983a256b28a38004c4544435e5f9e2c3593bcf220a445186586079c75c32103d13c9b12f9b6222
8d113e8d8c3e1def9a1e6c47ee5529cd96e82915e09f4e96abb4aedf0c3b558dfef4d8e2c565951128d93ff3e48b3b12d893f919f6ddb6ec15eb258fd4d6d838
79ef0111a10b93529b8567e83eca950616f9ff14e6717d006352487d3860fff3886a8b831878d899ce86768282bb3bcd8e8b4905e24f6631d9c099a0a4374c3d
d750fb33f75fcc91412fd3fd8f7a8f2616f9ff14e6717d006352487d3860fff3886a8b831878d899ce86768282bb3bcd8e8b4905e24f6631d9c099a0a4374c3d
55f66e3ad63dfbae49997b5eb5fa46b3a48aa12cf3ed1aff16f9ff14e6717d006352487d3860fff3886a8b831878d899ce86768282bb3bcddfd8650c79cb1f1f
6d95760df35fd6c28f95c45c4e43c25f2c4b5f36edab5d85aadd07bc494928ab52c0bd7117048136736962d3a65fed4a1f4a4ba6a7379ad1cfc2ec3cedae0a6c
a544c0f3e7e4cbf26be64ad0c3963666dcc49485b181f40c317c6f512d1dddb6a121c196647a44a4bf434c8c4e39e6342c4b5f36edab5d854c28c6fdaaed0164
75477f385bd52bea51886070b0f7a54316f9ff14e6717d006352487d3860fff3886a8b831878d899ce86768282bb3bcd8e8b4905e24f6631d9c099a0a4374c3d
d5ec0ca7cf15f48d2f279b42b28a063b206287783254a02fa205e4f91a9c2e30baf3985689b2e80fa4f69c78751dd3a2bdf74c10b68ef93c269a8231eb7e4492
ca180dc394a5f64ab1adb17795c10acf72c6ce1486cde2b752983a256b28a38004c4544435e5f9e2c3593bcf220a445186586079c75c32103d13c9b12f9b6222
242304f9a7539705710c28355478143b2c4b5f36edab5d85aadd07bc494928ab52c0bd7117048136736962d3a65fed4a1f4a4ba6a7379ad1cfc2ec3cedae0a6c
cd2365c45559d5ea85e53d2b0ff4dc3a9ba351c972f8011bde80584e8ada5ad5d4aa6be4c6e3a340c20469f0c26043a752f888c91e1193704eb3be5bfbb13d7a
16766a041c49c839710793f74e21ad052c4b5f36edab5d85aadd07bc494928ab52c0bd7117048136736962d3a65fed4a1f4a4ba6a7379ad1cfc2ec3cedae0a6c
9b2dd1971b649303f544ec5949e84b0ef79ed346fe02bf5dde80584e8ada5ad5d4aa6be4c6e3a340c20469f0c26043a752f888c91e1193704eb3be5bfbb13d7a
16c9e03191789a4d6a7dfd7f8da98380f5f333837a9131595946188b1c8938a222d31747fc1ef01e43f0f833ef9becf5d2290a32cc4878c4639baab5c59c4ff6
90fba7a0cc1d23aeded5fd6f2f1edfc6206287783254a02fa205e4f91a9c2e30baf3985689b2e80fa4f69c78751dd3a2bdf74c10b68ef93c269a8231eb7e4492
84d92c4662dc8978aefe3150afa9c46e72c6ce1486cde2b752983a256b28a38004c4544435e5f9e2c3593bcf220a445186586079c75c32103d13c9b12f9b6222
05761a1f23a59c359a8cd3c1e5f42dcbb1c246165044357e16f9ff14e6717d006352487d3860fff3886a8b831878d899ce86768282bb3bcddfd8650c79cb1f1f